
**** 05/12/24 22:14:20 ***** PSpice 23.1.0 (6 March 2024) ***** ID# 0 ********

 ** Profile: "SCHEMATIC1-DC_analysis"  [ C:\Users\akshd\Documents\MAIN\Extras\CAD_Lab_self\E1-PSpiceFiles\SCHEMATIC1\DC_analysis.sim 


 ****     CIRCUIT DESCRIPTION


******************************************************************************




** Creating circuit file "DC_analysis.cir" 
** WARNING: THIS AUTOMATICALLY GENERATED FILE MAY BE OVERWRITTEN BY SUBSEQUENT SIMULATIONS

*Libraries: 
* Profile Libraries :
* Local Libraries :
* From [PSPICE NETLIST] section of C:\Users\akshd\AppData\Roaming\SPB_Data\cdssetup\OrCAD_PSpice\23.1.0\PSpice.ini file:
.lib "nom.lib" 

*Analysis directives: 
.DC LIN V_V1 0v 5v 0.1v 
.OPTIONS ADVCONV
.PROBE64 V(alias(*)) I(alias(*)) W(alias(*)) D(alias(*)) NOISE(alias(*)) 
.INC "..\SCHEMATIC1.net" 



**** INCLUDING SCHEMATIC1.net ****
* source E1
R_R1         N00237 N00176  10k  
R_R2         N00163 N00251  1k  
Q_Q1         N00163 N00176 0 Q2N2222
V_V1         N00237 0 5Vdc
V_V2         N00251 0 5Vdc

**** RESUMING DC_analysis.cir ****
.END

**** 05/12/24 22:14:20 ***** PSpice 23.1.0 (6 March 2024) ***** ID# 0 ********

 ** Profile: "SCHEMATIC1-DC_analysis"  [ C:\Users\akshd\Documents\MAIN\Extras\CAD_Lab_self\E1-PSpiceFiles\SCHEMATIC1\DC_analysis.sim 


 ****     BJT MODEL PARAMETERS


******************************************************************************




               Q2N2222         
               NPN             
       LEVEL    1            
          IS   14.340000E-15 
          BF  255.9          
          NF    1            
         VAF   74.03         
         IKF     .2847       
         ISE   14.340000E-15 
          NE    1.307        
          BR    6.092        
          NR    1            
         ISS    0            
          RB   10            
          RE    0            
          RC    1            
         CJE   22.010000E-12 
         VJE     .75         
         MJE     .377        
         CJC    7.306000E-12 
         VJC     .75         
         MJC     .3416       
        XCJC    1            
         CJS    0            
         VJS     .75         
          TF  411.100000E-12 
         XTF    3            
         VTF    1.7          
         ITF     .6          
          TR   46.910000E-09 
         XTB    1.5          
          KF    0            
          AF    1            
          CN    2.42         
           D     .87         



          JOB CONCLUDED

**** 05/12/24 22:14:20 ***** PSpice 23.1.0 (6 March 2024) ***** ID# 0 ********

 ** Profile: "SCHEMATIC1-DC_analysis"  [ C:\Users\akshd\Documents\MAIN\Extras\CAD_Lab_self\E1-PSpiceFiles\SCHEMATIC1\DC_analysis.sim 


 ****     JOB STATISTICS SUMMARY


******************************************************************************



  Total job time (using Solver 1)   =         .08
