
**** 05/13/24 00:17:49 ***** PSpice 23.1.0 (6 March 2024) ***** ID# 0 ********

 ** Profile: "SCHEMATIC1-Transient"  [ C:\Users\akshd\Documents\MAIN\Extras\CAD_Lab_self\E3-PSpiceFiles\SCHEMATIC1\Transient.sim ] 


 ****     CIRCUIT DESCRIPTION


******************************************************************************




** Creating circuit file "Transient.cir" 
** WARNING: THIS AUTOMATICALLY GENERATED FILE MAY BE OVERWRITTEN BY SUBSEQUENT SIMULATIONS

*Libraries: 
* Profile Libraries :
* Local Libraries :
* From [PSPICE NETLIST] section of C:\Users\akshd\AppData\Roaming\SPB_Data\cdssetup\OrCAD_PSpice\23.1.0\PSpice.ini file:
.lib "nom.lib" 

*Analysis directives: 
.TRAN  0 50ms 0 
.OPTIONS ADVCONV
.PROBE64 V(alias(*)) I(alias(*)) W(alias(*)) D(alias(*)) NOISE(alias(*)) 
.INC "..\SCHEMATIC1.net" 



**** INCLUDING SCHEMATIC1.net ****
* source E3
M_M1         N00322 N00308 N00228 N00228 MbreakP  
+ L=10u  
+ W=180n         
M_M2         N00322 N00308 0 0 MbreakN           
R_R1         N00228 N00351  200k TC=0,0 
R_R2         N00471 N00308  100 TC=0,0 
V_V1         N00351 0 20Vdc
V_V2         N00471 0  
+PULSE 0 5 10m <TR> <TF> <PW> <PER>
----------------$
ERROR -- Expecting keyword STIMULUS, saw TR.


**** RESUMING Transient.cir ****
.END
